# KPP parameters
 &KPP_PARM01
 KPPmixingMaps   = .FALSE.,
 KPPwriteState   = .FALSE.,
#KPP_ghatUseTotalDiffus=.TRUE.,
 Ricr            =0.3,
 Riinfty         =0.699,
 &
